**************************************
*      Model Generated by MODPEX     *
*Copyright(c) Symmetry Design Systems*
*         All Rights Reserved        *
*    UNPUBLISHED LICENSED SOFTWARE   *
*   Contains Proprietary Information *
*      Which is The Property of      *
*     SYMMETRY OR ITS LICENSORS      *
*    Modeling services provided by   *
* Interface Technologies www.i-t.com *
**************************************
.MODEL Dss24 d
+IS=2.67287e-05 RS=0.0313603 N=1.3565 EG=0.650256
+XTI=0.5 BV=40 IBV=0.0004 CJO=3.56673e-10
+VJ=0.4 M=0.460735 FC=0.5 TT=0
+KF=0 AF=1
* Model generated on August 31, 2003
* Model format: PSpice
